Version 4
SHEET 1 1264 680
WIRE 32 -192 16 -192
WIRE 384 32 368 32
WIRE 496 32 464 32
WIRE -96 128 -96 96
WIRE -64 128 -96 128
WIRE -16 128 -64 128
WIRE 128 128 64 128
WIRE 240 128 128 128
WIRE 368 128 368 32
WIRE 368 128 320 128
WIRE 384 128 368 128
WIRE -96 144 -96 128
WIRE 496 144 496 32
WIRE 496 144 448 144
WIRE 528 144 496 144
WIRE 384 160 352 160
WIRE 352 224 352 160
WIRE 352 224 320 224
FLAG -480 -48 0
FLAG -320 -48 0
FLAG -480 -128 Vcc
FLAG -320 -128 -Vcc
FLAG 416 112 Vcc
FLAG 416 176 -Vcc
FLAG 128 208 0
FLAG -96 16 Vcc
FLAG -96 224 -Vcc
FLAG -64 128 Vp
FLAG 128 128 Vcomp
FLAG 16 -112 0
FLAG 32 -192 in
IOPIN 32 -192 In
FLAG 240 224 in
IOPIN 240 224 In
FLAG 528 144 out
IOPIN 528 144 Out
SYMBOL voltage -480 -144 R0
WINDOW 123 0 0 Left 0
WINDOW 39 0 0 Left 0
SYMATTR InstName Vcc
SYMATTR Value 5
SYMBOL voltage -320 -32 R180
WINDOW 123 0 0 Left 0
WINDOW 39 0 0 Left 0
SYMATTR InstName -Vcc
SYMATTR Value 5
SYMBOL OpAmps\\LT6234 416 144 R0
SYMATTR InstName U2
SYMBOL res 336 112 R90
WINDOW 0 0 56 VBottom 2
WINDOW 3 32 56 VTop 2
SYMATTR InstName R1
SYMATTR Value 10k
SYMBOL res 480 16 R90
WINDOW 0 0 56 VBottom 2
WINDOW 3 32 56 VTop 2
SYMATTR InstName R2
SYMATTR Value 90k
SYMBOL res 336 208 R90
WINDOW 0 0 56 VBottom 2
WINDOW 3 32 56 VTop 2
SYMATTR InstName R3
SYMATTR Value 9k
SYMBOL res 144 224 R180
WINDOW 0 36 76 Left 2
WINDOW 3 36 40 Left 2
SYMATTR InstName Rc1
SYMATTR Value 1
SYMBOL res 80 112 R90
WINDOW 0 0 56 VBottom 2
WINDOW 3 32 56 VTop 2
SYMATTR InstName Rc2
SYMATTR Value 100k
SYMBOL res -80 112 R180
WINDOW 0 36 76 Left 2
WINDOW 3 36 40 Left 2
SYMATTR InstName Rp1
SYMATTR Value {10k*a}
SYMBOL res -80 240 R180
WINDOW 0 36 76 Left 2
WINDOW 3 36 40 Left 2
SYMATTR InstName Rp2
SYMATTR Value {10k*(1-a)}
SYMBOL voltage 16 -208 R0
WINDOW 0 -85 61 Left 2
WINDOW 123 24 124 Left 2
WINDOW 39 0 0 Left 0
WINDOW 3 24 152 Left 2
SYMATTR InstName V1
SYMATTR Value2 AC 1
SYMATTR Value SINE(0 159m 1k)
TEXT 560 -184 Left 2 !.ac dec 100 1 10Meg
TEXT 560 -152 Left 2 !.op
TEXT 568 -112 Left 2 !;tran 10u
TEXT 560 -240 Left 2 !.param a 0.49883
