Version 4
SHEET 1 1796 800
WIRE 208 -320 192 -320
WIRE 320 -320 288 -320
WIRE 64 -224 -48 -224
WIRE 192 -224 192 -320
WIRE 192 -224 144 -224
WIRE 208 -224 192 -224
WIRE 320 -208 320 -320
WIRE 320 -208 272 -208
WIRE 352 -208 320 -208
WIRE 208 -192 176 -192
WIRE -48 -144 -48 -224
WIRE 64 -128 48 -128
WIRE 176 -128 176 -192
WIRE 176 -128 144 -128
WIRE 368 128 352 128
WIRE 480 128 448 128
WIRE -112 224 -112 192
WIRE -80 224 -112 224
WIRE -32 224 -80 224
WIRE 112 224 48 224
WIRE 224 224 112 224
WIRE 352 224 352 128
WIRE 352 224 304 224
WIRE 368 224 352 224
WIRE -112 240 -112 224
WIRE 480 240 480 128
WIRE 480 240 432 240
WIRE 512 240 480 240
WIRE 368 256 336 256
WIRE 224 320 208 320
WIRE 336 320 336 256
WIRE 336 320 304 320
FLAG -864 0 0
FLAG -704 0 0
FLAG -864 -80 Vcc
FLAG -704 -80 -Vcc
FLAG 240 -240 Vcc
FLAG 240 -176 -Vcc
FLAG 48 -128 0
FLAG 352 -208 out_err
FLAG 400 208 Vcc
FLAG 400 272 -Vcc
FLAG 208 320 0
FLAG 512 240 out_compensat
FLAG 112 304 0
FLAG -112 112 Vcc
FLAG -112 320 -Vcc
FLAG -48 -144 0
FLAG -80 224 Vp
FLAG 112 224 Vcomp
SYMBOL OpAmps\\LT6234 240 -208 R0
SYMATTR InstName U1
SYMBOL voltage -864 -96 R0
WINDOW 123 0 0 Left 0
WINDOW 39 0 0 Left 0
SYMATTR InstName V2
SYMATTR Value 5
SYMBOL voltage -704 16 R180
WINDOW 123 0 0 Left 0
WINDOW 39 0 0 Left 0
SYMATTR InstName V1
SYMATTR Value 5
SYMBOL res 160 -240 R90
WINDOW 0 0 56 VBottom 2
WINDOW 3 32 56 VTop 2
SYMATTR InstName R1
SYMATTR Value 10k
SYMBOL res 304 -336 R90
WINDOW 0 0 56 VBottom 2
WINDOW 3 32 56 VTop 2
SYMATTR InstName R2
SYMATTR Value 90k
SYMBOL res 160 -144 R90
WINDOW 0 0 56 VBottom 2
WINDOW 3 32 56 VTop 2
SYMATTR InstName R3
SYMATTR Value 9k
SYMBOL OpAmps\\LT6234 400 240 R0
SYMATTR InstName U2
SYMBOL res 320 208 R90
WINDOW 0 0 56 VBottom 2
WINDOW 3 32 56 VTop 2
SYMATTR InstName R11
SYMATTR Value 10k
SYMBOL res 464 112 R90
WINDOW 0 0 56 VBottom 2
WINDOW 3 32 56 VTop 2
SYMATTR InstName R22
SYMATTR Value 90k
SYMBOL res 320 304 R90
WINDOW 0 0 56 VBottom 2
WINDOW 3 32 56 VTop 2
SYMATTR InstName R33
SYMATTR Value 9k
SYMBOL res 128 320 R180
WINDOW 0 36 76 Left 2
WINDOW 3 36 40 Left 2
SYMATTR InstName Rc1
SYMATTR Value 1
SYMBOL res 64 208 R90
WINDOW 0 0 56 VBottom 2
WINDOW 3 32 56 VTop 2
SYMATTR InstName Rc2
SYMATTR Value 100k
SYMBOL res -96 208 R180
WINDOW 0 36 76 Left 2
WINDOW 3 36 40 Left 2
SYMATTR InstName Rp1
SYMATTR Value {10k*a}
SYMBOL res -96 336 R180
WINDOW 0 36 76 Left 2
WINDOW 3 36 40 Left 2
SYMATTR InstName Rp2
SYMATTR Value {10k*(1-a)}
TEXT -880 -312 Left 2 !.op
TEXT -880 -280 Left 2 !.param a 0.49883
TEXT -880 -240 Left 2 !;tran 10u
