Version 4
SHEET 1 1212 680
WIRE 96 -1360 -64 -1360
WIRE 336 -1360 288 -1360
WIRE -64 -1072 -64 -1360
WIRE 96 -1072 -64 -1072
WIRE 336 -1072 288 -1072
WIRE 416 -1072 416 -1360
WIRE -64 -768 -64 -1072
WIRE 96 -768 -64 -768
WIRE 336 -768 288 -768
WIRE 416 -768 416 -1072
WIRE -64 -464 -64 -768
WIRE 96 -464 -64 -464
WIRE 336 -464 288 -464
WIRE 416 -464 416 -768
WIRE -64 -144 -64 -464
WIRE 96 -144 -64 -144
WIRE 320 -144 288 -144
WIRE 416 -144 416 -464
WIRE 416 -144 400 -144
WIRE -64 208 -64 -144
WIRE -64 208 -160 208
WIRE 144 208 -64 208
WIRE 416 224 416 -144
WIRE 416 224 208 224
WIRE 144 240 64 240
WIRE -240 256 -240 208
FLAG -1664 -160 0
FLAG -240 256 0
FLAG 256 -1184 0
FLAG 256 -896 0
FLAG 256 -592 0
FLAG 256 -288 0
FLAG 256 32 0
FLAG -1824 -1264 0
FLAG -1696 -1264 0
FLAG -1824 -1344 vcc
FLAG 192 -1440 vcc
FLAG 192 -1152 vcc
FLAG 192 -848 vcc
FLAG 192 -544 vcc
FLAG 192 -224 vcc
FLAG 176 192 vcc
FLAG -1696 -1344 -vcc
FLAG 128 -1184 -vcc
FLAG 128 -896 -vcc
FLAG 128 -592 -vcc
FLAG 128 -288 -vcc
FLAG 128 32 -vcc
FLAG 176 256 -vcc
FLAG -1824 -1024 0
FLAG -1712 -1024 0
FLAG -1600 -1024 0
FLAG -1488 -1024 0
FLAG -1376 -1024 0
FLAG -1824 -1104 s1
FLAG -1712 -1104 s2
FLAG -1600 -1104 s3
FLAG -1488 -1104 s4
FLAG -1376 -1104 s5
FLAG 96 -80 s1
FLAG 96 -400 s2
FLAG 96 -704 s3
FLAG 96 -1008 s4
FLAG 96 -1296 s5
FLAG -1664 -240 in
IOPIN -1664 -240 In
FLAG 64 240 in
IOPIN 64 240 In
FLAG 416 224 out
IOPIN 416 224 Out
SYMBOL Switches\\ADG5412 192 -1024 R0
SYMATTR InstName U1
SYMBOL Switches\\ADG5412 192 -720 R0
SYMATTR InstName U2
SYMBOL Switches\\ADG5412 192 -416 R0
SYMATTR InstName U3
SYMBOL Switches\\ADG5412 192 -96 R0
SYMATTR InstName U4
SYMBOL OpAmps\\LT6234 176 224 R0
SYMATTR InstName U5
SYMBOL res 432 -1088 R90
WINDOW 0 0 56 VBottom 2
WINDOW 3 32 56 VTop 2
SYMATTR InstName Rf4
SYMATTR Value 6.1k
SYMBOL res 432 -784 R90
WINDOW 0 0 56 VBottom 2
WINDOW 3 32 56 VTop 2
SYMATTR InstName Rf3
SYMATTR Value 4k
SYMBOL res 432 -480 R90
WINDOW 0 0 56 VBottom 2
WINDOW 3 32 56 VTop 2
SYMATTR InstName Rf2
SYMATTR Value 2.55k
SYMBOL res 416 -160 R90
WINDOW 0 0 56 VBottom 2
WINDOW 3 32 56 VTop 2
SYMATTR InstName Rf1
SYMATTR Value 1.5k
SYMBOL res 432 -1376 R90
WINDOW 0 0 56 VBottom 2
WINDOW 3 32 56 VTop 2
SYMATTR InstName Rf5
SYMATTR Value 9k
SYMBOL res -144 192 R90
WINDOW 0 0 56 VBottom 2
WINDOW 3 32 56 VTop 2
SYMATTR InstName Rg
SYMATTR Value 1k
SYMBOL Switches\\ADG5412 192 -1312 R0
SYMATTR InstName U6
SYMBOL voltage -1664 -256 R0
WINDOW 3 24 152 Left 2
WINDOW 123 24 124 Left 2
WINDOW 39 0 0 Left 0
SYMATTR Value SINE(0 159m 1k)
SYMATTR Value2 AC 0.1
SYMATTR InstName V1
SYMBOL voltage -1824 -1360 R0
WINDOW 123 0 0 Left 0
WINDOW 39 0 0 Left 0
SYMATTR InstName V2
SYMATTR Value 5
SYMBOL voltage -1696 -1360 R0
WINDOW 123 0 0 Left 0
WINDOW 39 0 0 Left 0
SYMATTR InstName V3
SYMATTR Value -5
SYMBOL voltage -1824 -1120 R0
WINDOW 123 0 0 Left 0
WINDOW 39 0 0 Left 0
SYMATTR InstName S1
SYMATTR Value 5
SYMBOL voltage -1712 -1120 R0
WINDOW 123 0 0 Left 0
WINDOW 39 0 0 Left 0
SYMATTR InstName S2
SYMATTR Value 0
SYMBOL voltage -1600 -1120 R0
WINDOW 123 0 0 Left 0
WINDOW 39 0 0 Left 0
SYMATTR InstName S3
SYMATTR Value 0
SYMBOL voltage -1488 -1120 R0
WINDOW 123 0 0 Left 0
WINDOW 39 0 0 Left 0
SYMATTR InstName S4
SYMATTR Value 0
SYMBOL voltage -1376 -1120 R0
WINDOW 123 0 0 Left 0
WINDOW 39 0 0 Left 0
SYMATTR InstName S5
SYMATTR Value 0
TEXT 936 -1336 Left 2 !;ac dec 100 1 10Meg
TEXT 944 -1280 Left 2 !.op
TEXT 944 -1392 Left 2 !.tran 10m
TEXT 952 -1216 Left 2 !.FOUR 1kHz 10 V(out)
