Version 4
SHEET 1 1652 840
WIRE 544 256 528 256
WIRE 656 256 624 256
WIRE 64 352 64 320
WIRE 96 352 64 352
WIRE 144 352 96 352
WIRE 288 352 224 352
WIRE 400 352 288 352
WIRE 528 352 528 256
WIRE 528 352 480 352
WIRE 544 352 528 352
WIRE 64 368 64 352
WIRE 656 368 656 256
WIRE 656 368 608 368
WIRE 672 368 656 368
WIRE 688 368 672 368
WIRE 544 384 512 384
WIRE 400 448 384 448
WIRE 512 448 512 384
WIRE 512 448 480 448
FLAG -320 176 0
FLAG -160 176 0
FLAG -320 96 Vcc
FLAG -160 96 -Vcc
FLAG 576 336 Vcc
FLAG 576 400 -Vcc
FLAG 288 432 0
FLAG 64 240 Vcc
FLAG 64 448 -Vcc
FLAG 96 352 Vp
FLAG 288 352 Vcomp
FLAG 384 528 0
FLAG 672 368 out
SYMBOL voltage -320 80 R0
WINDOW 123 0 0 Left 0
WINDOW 39 0 0 Left 0
SYMATTR InstName Vcc1
SYMATTR Value 5
SYMBOL voltage -160 192 R180
WINDOW 123 0 0 Left 0
WINDOW 39 0 0 Left 0
SYMATTR InstName V1
SYMATTR Value 5
SYMBOL OpAmps\\LT6234 576 368 R0
SYMATTR InstName U1
SYMBOL res 496 336 R90
WINDOW 0 0 56 VBottom 2
WINDOW 3 32 56 VTop 2
SYMATTR InstName R1
SYMATTR Value 10k
SYMBOL res 640 240 R90
WINDOW 0 0 56 VBottom 2
WINDOW 3 32 56 VTop 2
SYMATTR InstName R2
SYMATTR Value 90k
SYMBOL res 496 432 R90
WINDOW 0 0 56 VBottom 2
WINDOW 3 32 56 VTop 2
SYMATTR InstName R3
SYMATTR Value 9k
SYMBOL res 304 448 R180
WINDOW 0 36 76 Left 2
WINDOW 3 36 40 Left 2
SYMATTR InstName Rc1
SYMATTR Value 1
SYMBOL res 240 336 R90
WINDOW 0 0 56 VBottom 2
WINDOW 3 32 56 VTop 2
SYMATTR InstName Rc2
SYMATTR Value 100k
SYMBOL res 80 336 R180
WINDOW 0 36 76 Left 2
WINDOW 3 36 40 Left 2
SYMATTR InstName Rp1
SYMATTR Value {10k*a}
SYMBOL res 80 464 R180
WINDOW 0 36 76 Left 2
WINDOW 3 36 40 Left 2
SYMATTR InstName Rp2
SYMATTR Value {10k*(1-a)}
SYMBOL voltage 1072 416 R0
WINDOW 0 -85 61 Left 2
WINDOW 123 24 124 Left 2
WINDOW 39 0 0 Left 0
WINDOW 3 24 152 Left 2
SYMATTR InstName V2
SYMATTR Value PULSE(0 159m 0 1n 1n 1m 2m 5)
SYMBOL voltage 384 432 R0
WINDOW 123 0 0 Left 0
WINDOW 39 0 0 Left 0
SYMATTR InstName V3
SYMATTR Value SINE(0 159m 1k)
TEXT 720 72 Left 2 !.op
TEXT 720 32 Left 2 !.tran 5m
TEXT 720 -16 Left 2 !.param a 0.49883
TEXT 728 -56 Left 2 !.FOUR 1kHz 10 V(out)
